Circuit: * E:\engg\4th sem\project\cmos.asc

Limiting rise time of source v1 to 0.002
Limiting fall time of source v1 to 0.002
WARNING: Node N002 is floating.
WARNING: Node N004 is floating.

Direct Newton iteration for .op point succeeded.


Total elapsed time: 0.220 seconds.

tnom = 27
temp = 27
method = modified trap
totiter = 2692
traniter = 2666
tranpoints = 1190
accept = 1152
rejected = 38
matrix size = 7
fillins = 0
solver = Normal
Avg thread counts: 1.5/2.0/2.1/1.5
Matrix Compiler1: 340 bytes object code size  0.2/0.2/[0.1]
Matrix Compiler2: off  [0.1]/0.2/0.1

